@<TRIPOS>MOLECULE
BHC2.pdb
 33 35 0 0 0
SMALL
GASTEIGER

@<TRIPOS>ATOM
      1  N          1.2820    0.0200    0.1840 N.1     1  LIG1       -0.1909
      2  C          0.1350    0.0130    0.1270 C.1     1  LIG1        0.0992
      3  C         -1.1670    0.0130    0.0570 C.ar    1  LIG1        0.0518
      4  C         -1.9430    0.3050    1.1980 C.ar    1  LIG1       -0.0440
      5  C         -3.3490    0.3120    1.1130 C.ar    1  LIG1       -0.0550
      6  C         -4.0140    0.0240   -0.1040 C.ar    1  LIG1       -0.0186
      7  C         -3.2160   -0.2500   -1.2430 C.ar    1  LIG1       -0.0550
      8  C         -1.8110   -0.2670   -1.1650 C.ar    1  LIG1       -0.0440
      9  C         -5.5130    0.0530   -0.1560 C.3     1  LIG1        0.1042
     10  C         -6.1080   -0.9640   -1.0930 C.ar    1  LIG1       -0.0186
     11  C         -6.3220   -2.2900   -0.6390 C.ar    1  LIG1       -0.0550
     12  C         -6.8060   -3.2920   -1.5010 C.ar    1  LIG1       -0.0440
     13  C         -7.0810   -2.9910   -2.8500 C.ar    1  LIG1        0.0518
     14  C         -6.9040   -1.6720   -3.3140 C.ar    1  LIG1       -0.0440
     15  C         -6.4260   -0.6740   -2.4440 C.ar    1  LIG1       -0.0550
     16  C         -7.4740   -3.9290   -3.6670 C.1     1  LIG1        0.0992
     17  N         -7.8060   -4.7600   -4.3870 N.1     1  LIG1       -0.1909
     18  N         -5.9770    1.4050   -0.3530 N.ar    1  LIG1       -0.2402
     19  C         -6.8600    2.0660    0.4240 C.ar    1  LIG1        0.1153
     20  N         -7.0620    3.2960   -0.0630 N.ar    1  LIG1       -0.2228
     21  C         -6.2730    3.3610   -1.1420 C.ar    1  LIG1        0.1380
     22  N         -5.6080    2.2070   -1.3040 N.ar    1  LIG1       -0.1575
     23  H         -1.4990    0.5170    2.0980 H       1  LIG1        0.0630
     24  H         -3.8880    0.5360    1.9550 H       1  LIG1        0.0621
     25  H         -3.6460   -0.4410   -2.1490 H       1  LIG1        0.0621
     26  H         -1.2710   -0.4820   -2.0100 H       1  LIG1        0.0630
     27  H         -5.8610   -0.2460    0.8410 H       1  LIG1        0.0646
     28  H         -6.1130   -2.5440    0.3320 H       1  LIG1        0.0621
     29  H         -6.9430   -4.2390   -1.1340 H       1  LIG1        0.0630
     30  H         -7.1070   -1.4220   -4.2870 H       1  LIG1        0.0630
     31  H         -6.2940    0.2630   -2.8240 H       1  LIG1        0.0621
     32  H         -7.3130    1.6920    1.2600 H       1  LIG1        0.1044
     33  H         -6.1930    4.1710   -1.7560 H       1  LIG1        0.1065
@<TRIPOS>BOND
     1     1     2    3
     2     2     3    1
     3     3     4   ar
     4     3     8   ar
     5     4     5   ar
     6     4    23    1
     7     5     6   ar
     8     5    24    1
     9     6     7   ar
    10     6     9    1
    11     7     8   ar
    12     7    25    1
    13     8    26    1
    14     9    10    1
    15     9    18    1
    16     9    27    1
    17    10    11   ar
    18    10    15   ar
    19    11    12   ar
    20    11    28    1
    21    12    13   ar
    22    12    29    1
    23    13    14   ar
    24    13    16    1
    25    14    15   ar
    26    14    30    1
    27    15    31    1
    28    16    17    3
    29    18    19   ar
    30    18    22   ar
    31    19    20   ar
    32    19    32    1
    33    20    21   ar
    34    21    22   ar
    35    21    33    1